LAMMPS (29 Aug 2024 - Development - patch_29Aug2024-239-gfcbc37d5a4)
units                real
atom_style           full
boundary             p p p
dielectric           1
special_bonds        lj/coul 0.0 0.0 1.0

pair_style           lj/charmm/coul/charmm 13 14.00000
bond_style           none
angle_style          none
dihedral_style       none
improper_style       none
kspace_style         none

read_data            data.lammps
Reading data file ...
  orthogonal box = (10.216811 -9.658189 -1.758189) to (19.283189 -3.391811 1.758189)
  reading atoms ...
  6 atoms
Finding 1-2 1-3 1-4 neighbors ...
     0 = max # of 1-2 neighbors
     0 = max # of 1-3 neighbors
     1 = max # of special neighbors

pair_modify          mix geometric
neighbor             2.0 multi
neigh_modify         every 2 delay 4 check yes
thermo_style         multi
thermo_modify        line multi format float %14.6f flush yes
variable             input string in.lammps
variable             sname string lammps

timestep             1

print                .
.
print                ==========================================
==========================================
print                "500 steps CG Minimization"
500 steps CG Minimization
print                ==========================================
==========================================
print                .
.

thermo_style         custom step time etotal evdwl ecoul epair ebond eangle edihed eimp emol elong etail enthalpy ecouple econserve ke pe temp press vol density
dump                 1 all custom 10 lammps.visualize.lammpstrj id type xu yu zu vx vy vz
thermo               10
min_style            sd
minimize             0 1.0e-6 5000 50000

CITE-CITE-CITE-CITE-CITE-CITE-CITE-CITE-CITE-CITE-CITE-CITE-CITE

Your simulation uses code contributions which should be cited:

- Type Label Framework: https://doi.org/10.1021/acs.jpcb.3c08419

@Article{Gissinger24,
 author = {Jacob R. Gissinger, Ilia Nikiforov, Yaser Afshar, Brendon Waters, Moon-ki Choi, Daniel S. Karls, Alexander Stukowski, Wonpil Im, Hendrik Heinz, Axel Kohlmeyer, and Ellad B. Tadmor},
 title = {Type Label Framework for Bonded Force Fields in LAMMPS},
 journal = {J. Phys. Chem. B},
 year =    2024,
 volume =  128,
 number =  13,
 pages =   {3282â€“-3297}
}

- neighbor multi command: doi:10.1016/j.cpc.2008.03.005, doi:10.1007/s40571-020-00361-2

@Article{Intveld08,
 author =  {in 't Veld, P. J. and S. J.~Plimpton and G. S. Grest},
 title =   {Accurate and Efficient Methods for Modeling Colloidal
            Mixtures in an Explicit Solvent using Molecular Dynamics},
 journal = {Comput.\ Phys.\ Commut.},
 year =    2008,
 volume =  179,
 pages =   {320--329}
}

@article{Shire2020,
 author = {Shire, Tom and Hanley, Kevin J. and Stratford, Kevin},
 title = {{DEM} Simulations of Polydisperse Media: Efficient Contact
          Detection Applied to Investigate the Quasi-Static Limit},
 journal = {Computational Particle Mechanics},
 year = {2020}
@article{Monti2022,
 author = {Monti, Joseph M. and Clemmer, Joel T. and Srivastava,
           Ishan and Silbert, Leonardo E. and Grest, Gary S.
           and Lechman, Jeremy B.},
 title = {Large-scale frictionless jamming with power-law particle
          size distributions},
 journal = {Phys. Rev. E},
 volume = {106}
 issue = {3}
 year = {2022}
}

CITE-CITE-CITE-CITE-CITE-CITE-CITE-CITE-CITE-CITE-CITE-CITE-CITE

Generated 0 of 0 mixed pair_coeff terms from geometric mixing rule
Step          Time          TotEng         E_vdwl         E_coul         E_pair         E_bond        E_angle        E_dihed        E_impro         E_mol          E_long         E_tail        Enthalpy       Ecouple       Econserve        KinEng         PotEng          Temp          Press          Volume        Density
0   0              13046.127      13046.127      0              13046.127      0              0              0              0              0              0              0              65665.843      0              13046.127      0              13046.127      0              18060370       199.77722      1.7681021
Loop time of 0.0308605 on 1 procs for 244 steps with 6 atoms

Minimization stats:
  Stopping criterion = force tolerance
  Energy initial, next-to-last, final =
  Force two-norm initial, final = 108783.12 8.0065257e-07
  Force max component initial, final = 70059.638 4.9142952e-07
  Final line search alpha, max atom move = 1 4.9142952e-07
  Iterations, force evaluations = 244 467

min_style            cg
minimize             0 1.0e-6 5000 50000
Generated 0 of 0 mixed pair_coeff terms from geometric mixing rule
Step          Time          TotEng         E_vdwl         E_coul         E_pair         E_bond        E_angle        E_dihed        E_impro         E_mol          E_long         E_tail        Enthalpy       Ecouple       Econserve        KinEng         PotEng          Temp          Press          Volume        Density
244   244           -9.0531795     -9.0531795      0             -9.0531795      0              0              0              0              0              0              0              21.346251      0             -9.0531795      0             -9.0531795      0              10433.826      199.77722      1.7681021
Loop time of 0.000251183 on 1 procs for 1 steps with 6 atoms

Minimization stats:
  Stopping criterion = force tolerance
  Energy initial, next-to-last, final =
  Force two-norm initial, final = 8.0065257e-07 6.6727602e-07
  Force max component initial, final = 4.9142952e-07 4.0729142e-07
  Final line search alpha, max atom move = 1 4.0729142e-07
  Iterations, force evaluations = 1 2

#now                 minimize the entire system
minimize             0 1.0e-6 5000 50000
Generated 0 of 0 mixed pair_coeff terms from geometric mixing rule
Step          Time          TotEng         E_vdwl         E_coul         E_pair         E_bond        E_angle        E_dihed        E_impro         E_mol          E_long         E_tail        Enthalpy       Ecouple       Econserve        KinEng         PotEng          Temp          Press          Volume        Density
245   245           -9.0531795     -9.0531795      0             -9.0531795      0              0              0              0              0              0              0              21.346251      0             -9.0531795      0             -9.0531795      0              10433.826      199.77722      1.7681021
Loop time of 0.000178949 on 1 procs for 1 steps with 6 atoms

Minimization stats:
  Stopping criterion = force tolerance
  Energy initial, next-to-last, final =
  Force two-norm initial, final = 6.6727602e-07 5.2326703e-07
  Force max component initial, final = 4.0729142e-07 3.2132298e-07
  Final line search alpha, max atom move = 1 3.2132298e-07
  Iterations, force evaluations = 1 2

print                .
.
print                =====================================
=====================================
print                "NVT dynamics to heat system"
NVT dynamics to heat system
print                =====================================
=====================================
print                .
.

velocity             all create 0.0 12345678 dist uniform
thermo               100
fix                  4 all nvt temp 1.0 298 100.0
run                  100000
Generated 0 of 0 mixed pair_coeff terms from geometric mixing rule
Step          Time          TotEng         E_vdwl         E_coul         E_pair         E_bond        E_angle        E_dihed        E_impro         E_mol          E_long         E_tail        Enthalpy       Ecouple       Econserve        KinEng         PotEng          Temp          Press          Volume        Density
246   0             -9.0531795     -9.0531795      0             -9.0531795      0              0              0              0              0              0              0              21.346251      0             -9.0531795      0             -9.0531795      0              10433.826      199.77722      1.7681021
Averages over the last 501 of 1002 rows, steps 50300 to 100246:
TotEng E_vdwl E_coul E_pair E_bond E_angle E_dihed E_impro E_mol E_long E_tail Enthalpy Ecouple Econserve KinEng PotEng Temp Press Volume Density
-3.09868 -6.47135 0 -6.47135 0 0 0 0 0 0 0 41.5763 -22.5541 -25.6528 3.37266 -6.47135 226.292 15333.5 199.777 1.7681
Loop time of 3.89529 on 1 procs for 100000 steps with 6 atoms

unfix                4
undump               1
